Version 4.1
SHEET 1 880 680
WIRE 272 -496 240 -496
WIRE 240 -464 240 -496
WIRE 272 -416 272 -496
WIRE 272 -416 240 -416
WIRE 240 -400 240 -416
WIRE 240 -400 80 -400
WIRE 80 -384 80 -400
WIRE 240 -384 240 -400
WIRE 80 -288 80 -304
WIRE 240 -288 240 -304
WIRE 240 -288 80 -288
WIRE 240 -272 240 -288
WIRE 368 -272 240 -272
WIRE 64 -240 -32 -240
WIRE -32 -224 -32 -240
WIRE 64 -224 64 -240
WIRE 176 -224 64 -224
WIRE 288 -208 240 -208
WIRE 240 -144 240 -176
WIRE 288 -144 288 -208
WIRE 288 -144 240 -144
WIRE -32 -96 -32 -144
WIRE 80 -16 -16 -16
WIRE 240 -16 240 -144
WIRE 288 -16 240 -16
WIRE -16 0 -16 -16
WIRE 288 16 288 -16
WIRE 80 64 80 -16
WIRE 224 64 80 64
WIRE 352 80 288 80
WIRE 304 112 288 112
WIRE 352 112 352 80
WIRE 352 112 304 112
WIRE 304 160 304 112
FLAG -16 80 0
FLAG 304 160 0
FLAG -32 -96 0
FLAG 240 -464 0
FLAG 368 -272 Vout
IOPIN 368 -272 Out
SYMBOL voltage -16 -16 R0
WINDOW 123 0 0 Left 0
WINDOW 39 0 0 Left 0
SYMATTR InstName Vin
SYMATTR Value SINE(1.3693 0.1m 100)
SYMBOL ALD1101 224 16 R0
SYMATTR InstName M1
SYMBOL ALD1101 176 -272 R0
SYMATTR InstName M2
SYMBOL current 240 -384 R0
WINDOW 123 0 0 Left 0
WINDOW 39 0 0 Left 0
SYMATTR InstName Id
SYMATTR Value 0.001
SYMBOL voltage -32 -240 R0
WINDOW 123 0 0 Left 0
WINDOW 39 0 0 Left 0
SYMATTR InstName Vb
SYMATTR Value 2.2
SYMBOL res 64 -400 R0
SYMATTR InstName R1
SYMATTR Value 1e6
TEXT -48 336 Left 2 ;.dc Vin 1.36 1.38 0.0001
TEXT -48 368 Left 2 !.lib ECE331_354.lib
TEXT -24 264 Left 2 !.op
TEXT 104 248 Left 2 ;.tran 50m
